<?xml version="1.0" encoding="utf-8"?>
<!DOCTYPE population SYSTEM "http://www.matsim.org/files/dtd/population_v6.dtd">

<population>



<!-- ====================================================================== -->

	<person id="car_home0_work0_0">
		<plan selected="yes">
			<activity type="home" x="502661.2893514676" y="5579481.883367597" end_time="09:00:00" >
			</activity>
			<leg mode="drt">
			</leg>
			<activity type="work" x="506738.1360515401" y="5577588.575411303" end_time="17:00:00" >
			</activity>
			<leg mode="drt">
			</leg>
			<activity type="home" x="502661.2893514676" y="5579481.883367597" end_time="09:00:00" >
			</activity>
		</plan>

	</person>

<!-- ====================================================================== -->

	<person id="car_home100_work100_0">
		<plan selected="yes">
			<activity type="home" x="504704.0944058262" y="5583192.671602337" end_time="09:00:00" >
			</activity>
			<leg mode="drt">
			</leg>
			<activity type="work" x="506738.1360515401" y="5577588.575411303" end_time="17:00:00" >
			</activity>
			<leg mode="drt">
			</leg>
			<activity type="home" x="504704.0944058262" y="5583192.671602337" end_time="09:00:00" >
			</activity>
		</plan>

	</person>

<!-- ====================================================================== -->

	<person id="car_home101_work101_0">
		<plan selected="yes">
			<activity type="home" x="506612.7775035962" y="5581117.644012728" end_time="09:00:00" >
			</activity>
			<leg mode="drt">
			</leg>
			<activity type="work" x="503008.65233273205" y="5580204.815770433" end_time="17:00:00" >
			</activity>
			<leg mode="drt">
			</leg>
			<activity type="home" x="506612.7775035962" y="5581117.644012728" end_time="09:00:00" >
			</activity>
		</plan>

	</person>

<!-- ====================================================================== -->

	<person id="car_home102_work102_0">
		<plan selected="yes">
			<activity type="home" x="506498.2723054696" y="5581148.635845893" end_time="09:00:00" >
			</activity>
			<leg mode="drt">
			</leg>
			<activity type="work" x="503806.9431677407" y="5582557.041264624" end_time="17:00:00" >
			</activity>
			<leg mode="drt">
			</leg>
			<activity type="home" x="506498.2723054696" y="5581148.635845893" end_time="09:00:00" >
			</activity>
		</plan>

	</person>

<!-- ====================================================================== -->

	<person id="car_home103_work103_0">
		<plan selected="yes">
			<activity type="home" x="505958.0670963872" y="5582292.166821041" end_time="09:00:00" >
			</activity>
			<leg mode="drt">
			</leg>
			<activity type="work" x="503051.53869659733" y="5578589.225527735" end_time="17:00:00" >
			</activity>
			<leg mode="drt">
			</leg>
			<activity type="home" x="505958.0670963872" y="5582292.166821041" end_time="09:00:00" >
			</activity>
		</plan>

	</person>

<!-- ====================================================================== -->

	<person id="car_home104_work104_0">
		<plan selected="yes">
			<activity type="home" x="507165.2790990877" y="5584209.511494351" end_time="09:00:00" >
			</activity>
			<leg mode="drt">
			</leg>
			<activity type="work" x="507639.0162707302" y="5581894.036423915" end_time="17:00:00" >
			</activity>
			<leg mode="drt">
			</leg>
			<activity type="home" x="507165.2790990877" y="5584209.511494351" end_time="09:00:00" >
			</activity>
		</plan>

	</person>

<!-- ====================================================================== -->

	<person id="car_home105_work105_0">
		<plan selected="yes">
			<activity type="home" x="506234.12840529956" y="5583875.864885995" end_time="09:00:00" >
			</activity>
			<leg mode="drt">
			</leg>
			<activity type="work" x="507823.69416328875" y="5582955.081565522" end_time="17:00:00" >
			</activity>
			<leg mode="drt">
			</leg>
			<activity type="home" x="506234.12840529956" y="5583875.864885995" end_time="09:00:00" >
			</activity>
		</plan>

	</person>

<!-- ====================================================================== -->

	<person id="car_home106_work106_0">
		<plan selected="yes">
			<activity type="home" x="507708.0660603625" y="5582803.689960128" end_time="09:00:00" >
			</activity>
			<leg mode="drt">
			</leg>
			<activity type="work" x="503001.15510377457" y="5579632.174007302" end_time="17:00:00" >
			</activity>
			<leg mode="drt">
			</leg>
			<activity type="home" x="507708.0660603625" y="5582803.689960128" end_time="09:00:00" >
			</activity>
		</plan>

	</person>

<!-- ====================================================================== -->

	<person id="car_home107_work107_0">
		<plan selected="yes">
			<activity type="home" x="503737.0902619846" y="5578809.824481577" end_time="09:00:00" >
			</activity>
			<leg mode="drt">
			</leg>
			<activity type="work" x="505255.73195805296" y="5583769.168193089" end_time="17:00:00" >
			</activity>
			<leg mode="drt">
			</leg>
			<activity type="home" x="503737.0902619846" y="5578809.824481577" end_time="09:00:00" >
			</activity>
		</plan>

	</person>

<!-- ====================================================================== -->

	<person id="car_home108_work108_0">
		<plan selected="yes">
			<activity type="home" x="506539.4392966588" y="5578903.72254356" end_time="09:00:00" >
			</activity>
			<leg mode="drt">
			</leg>
			<activity type="work" x="503642.41417622473" y="5584079.148603233" end_time="17:00:00" >
			</activity>
			<leg mode="drt">
			</leg>
			<activity type="home" x="506539.4392966588" y="5578903.72254356" end_time="09:00:00" >
			</activity>
		</plan>

	</person>

<!-- ====================================================================== -->

	<person id="car_home109_work109_0">
		<plan selected="yes">
			<activity type="home" x="505328.701624901" y="5583286.666102723" end_time="09:00:00" >
			</activity>
			<leg mode="drt">
			</leg>
			<activity type="work" x="507466.6190050057" y="5582656.569398419" end_time="17:00:00" >
			</activity>
			<leg mode="drt">
			</leg>
			<activity type="home" x="505328.701624901" y="5583286.666102723" end_time="09:00:00" >
			</activity>
		</plan>

	</person>

<!-- ====================================================================== -->

	<person id="car_home10_work10_0">
		<plan selected="yes">
			<activity type="home" x="502792.1702368057" y="5579441.921818209" end_time="09:00:00" >
			</activity>
			<leg mode="drt">
			</leg>
			<activity type="work" x="506368.19574986113" y="5582893.083490347" end_time="17:00:00" >
			</activity>
			<leg mode="drt">
			</leg>
			<activity type="home" x="502792.1702368057" y="5579441.921818209" end_time="09:00:00" >
			</activity>
		</plan>

	</person>

<!-- ====================================================================== -->

	<person id="car_home110_work110_0">
		<plan selected="yes">
			<activity type="home" x="504355.5974847594" y="5578323.278412367" end_time="09:00:00" >
			</activity>
			<leg mode="drt">
			</leg>
			<activity type="work" x="506368.19574986113" y="5582893.083490347" end_time="17:00:00" >
			</activity>
			<leg mode="drt">
			</leg>
			<activity type="home" x="504355.5974847594" y="5578323.278412367" end_time="09:00:00" >
			</activity>
		</plan>

	</person>

<!-- ====================================================================== -->

	<person id="car_home111_work111_0">
		<plan selected="yes">
			<activity type="home" x="506897.91503611754" y="5578362.674306648" end_time="09:00:00" >
			</activity>
			<leg mode="drt">
			</leg>
			<activity type="work" x="505010.30663141166" y="5581045.831996981" end_time="17:00:00" >
			</activity>
			<leg mode="drt">
			</leg>
			<activity type="home" x="506897.91503611754" y="5578362.674306648" end_time="09:00:00" >
			</activity>
		</plan>

	</person>

<!-- ====================================================================== -->

	<person id="car_home112_work112_0">
		<plan selected="yes">
			<activity type="home" x="504391.00423669466" y="5581087.534468664" end_time="09:00:00" >
			</activity>
			<leg mode="drt">
			</leg>
			<activity type="work" x="505653.36479221034" y="5583398.195868302" end_time="17:00:00" >
			</activity>
			<leg mode="drt">
			</leg>
			<activity type="home" x="504391.00423669466" y="5581087.534468664" end_time="09:00:00" >
			</activity>
		</plan>

	</person>

<!-- ====================================================================== -->

	<person id="car_home113_work113_0">
		<plan selected="yes">
			<activity type="home" x="504680.28088440845" y="5577975.526206013" end_time="09:00:00" >
			</activity>
			<leg mode="drt">
			</leg>
			<activity type="work" x="504567.7161409213" y="5581460.177425137" end_time="17:00:00" >
			</activity>
			<leg mode="drt">
			</leg>
			<activity type="home" x="504680.28088440845" y="5577975.526206013" end_time="09:00:00" >
			</activity>
		</plan>

	</person>

<!-- ====================================================================== -->

	<person id="car_home114_work114_0">
		<plan selected="yes">
			<activity type="home" x="505161.450627811" y="5582805.037234684" end_time="09:00:00" >
			</activity>
			<leg mode="drt">
			</leg>
			<activity type="work" x="507857.68676452484" y="5583037.414412877" end_time="17:00:00" >
			</activity>
			<leg mode="drt">
			</leg>
			<activity type="home" x="505161.450627811" y="5582805.037234684" end_time="09:00:00" >
			</activity>
		</plan>

	</person>

<!-- ====================================================================== -->

	<person id="car_home115_work115_0">
		<plan selected="yes">
			<activity type="home" x="505872.0424594004" y="5579104.1968353335" end_time="09:00:00" >
			</activity>
			<leg mode="drt">
			</leg>
			<activity type="work" x="507171.1946725255" y="5583515.677872084" end_time="17:00:00" >
			</activity>
			<leg mode="drt">
			</leg>
			<activity type="home" x="505872.0424594004" y="5579104.1968353335" end_time="09:00:00" >
			</activity>
		</plan>

	</person>

<!-- ====================================================================== -->

	<person id="car_home116_work116_0">
		<plan selected="yes">
			<activity type="home" x="506718.9982395256" y="5579773.467108121" end_time="09:00:00" >
			</activity>
			<leg mode="drt">
			</leg>
			<activity type="work" x="502933.74424689525" y="5583204.7353624" end_time="17:00:00" >
			</activity>
			<leg mode="drt">
			</leg>
			<activity type="home" x="506718.9982395256" y="5579773.467108121" end_time="09:00:00" >
			</activity>
		</plan>

	</person>

<!-- ====================================================================== -->

	<person id="car_home117_work117_0">
		<plan selected="yes">
			<activity type="home" x="506562.2276754464" y="5578307.763589413" end_time="09:00:00" >
			</activity>
			<leg mode="drt">
			</leg>
			<activity type="work" x="507664.27277867723" y="5580162.811882506" end_time="17:00:00" >
			</activity>
			<leg mode="drt">
			</leg>
			<activity type="home" x="506562.2276754464" y="5578307.763589413" end_time="09:00:00" >
			</activity>
		</plan>

	</person>

<!-- ====================================================================== -->

	<person id="car_home118_work118_0">
		<plan selected="yes">
			<activity type="home" x="507437.4034642175" y="5582203.975395805" end_time="09:00:00" >
			</activity>
			<leg mode="drt">
			</leg>
			<activity type="work" x="503365.2232325044" y="5579715.786836335" end_time="17:00:00" >
			</activity>
			<leg mode="drt">
			</leg>
			<activity type="home" x="507437.4034642175" y="5582203.975395805" end_time="09:00:00" >
			</activity>
		</plan>

	</person>

<!-- ====================================================================== -->

	<person id="car_home119_work119_0">
		<plan selected="yes">
			<activity type="home" x="504701.34989078226" y="5582283.116313554" end_time="09:00:00" >
			</activity>
			<leg mode="drt">
			</leg>
			<activity type="work" x="502922.34959496313" y="5578099.910127837" end_time="17:00:00" >
			</activity>
			<leg mode="drt">
			</leg>
			<activity type="home" x="504701.34989078226" y="5582283.116313554" end_time="09:00:00" >
			</activity>
		</plan>

	</person>

<!-- ====================================================================== -->

	<person id="car_home11_work11_0">
		<plan selected="yes">
			<activity type="home" x="506892.0696455124" y="5579027.592850084" end_time="09:00:00" >
			</activity>
			<leg mode="drt">
			</leg>
			<activity type="work" x="505010.30663141166" y="5581045.831996981" end_time="17:00:00" >
			</activity>
			<leg mode="drt">
			</leg>
			<activity type="home" x="506892.0696455124" y="5579027.592850084" end_time="09:00:00" >
			</activity>
		</plan>

	</person>

<!-- ====================================================================== -->

	<person id="car_home120_work120_0">
		<plan selected="yes">
			<activity type="home" x="505601.40116320516" y="5583478.199082335" end_time="09:00:00" >
			</activity>
			<leg mode="drt">
			</leg>
			<activity type="work" x="507722.70782104635" y="5581538.342881479" end_time="17:00:00" >
			</activity>
			<leg mode="drt">
			</leg>
			<activity type="home" x="505601.40116320516" y="5583478.199082335" end_time="09:00:00" >
			</activity>
		</plan>

	</person>

<!-- ====================================================================== -->

	<person id="car_home121_work121_0">
		<plan selected="yes">
			<activity type="home" x="508167.98785182624" y="5578616.887056258" end_time="09:00:00" >
			</activity>
			<leg mode="drt">
			</leg>
			<activity type="work" x="507095.08913977415" y="5579856.240100366" end_time="17:00:00" >
			</activity>
			<leg mode="drt">
			</leg>
			<activity type="home" x="508167.98785182624" y="5578616.887056258" end_time="09:00:00" >
			</activity>
		</plan>

	</person>

<!-- ====================================================================== -->

	<person id="car_home122_work122_0">
		<plan selected="yes">
			<activity type="home" x="508736.7727422568" y="5582221.530099457" end_time="09:00:00" >
			</activity>
			<leg mode="drt">
			</leg>
			<activity type="work" x="508387.6446154533" y="5580050.49358965" end_time="17:00:00" >
			</activity>
			<leg mode="drt">
			</leg>
			<activity type="home" x="508736.7727422568" y="5582221.530099457" end_time="09:00:00" >
			</activity>
		</plan>

	</person>

<!-- ====================================================================== -->

	<person id="car_home123_work123_0">
		<plan selected="yes">
			<activity type="home" x="507070.4019521136" y="5580236.483371734" end_time="09:00:00" >
			</activity>
			<leg mode="drt">
			</leg>
			<activity type="work" x="505000.7754894504" y="5580598.83130414" end_time="17:00:00" >
			</activity>
			<leg mode="drt">
			</leg>
			<activity type="home" x="507070.4019521136" y="5580236.483371734" end_time="09:00:00" >
			</activity>
		</plan>

	</person>


<!-- ====================================================================== -->

</population>
